*SPEF "IEEE 1481.1999"
*DESIGN "counter"
*DATE "15:49:40 Thursday May 20, 2021"
*VENDOR "unknown"
*PROGRAM "qrouter"
*VERSION "unknown"
*DESIGN_FLOW "qflow"
*DIVIDER /
*DELIMITER :
*BUS_DELIMITER <>
*T_UNIT 1 PS
*C_UNIT 1 FF
*R_UNIT 1 OHM
*L_UNIT 1 HENRY

*NAME_MAP
*1 _4_[0]
*2 DFFSR_1
*3 AND2X2_1
*4 NOR2X1_1
*5 INVX1_1
*6 BUFX2_1
*7 _4_[1]
*8 DFFSR_2
*9 AND2X2_1
*10 NOR2X1_1
*11 BUFX2_2
*12 clk
*13 DFFSR_2
*14 DFFSR_1
*15 _1_
*16 INVX1_2
*17 DFFSR_2
*18 DFFSR_1
*19 val[0]
*20 BUFX2_1
*21 val[1]
*22 BUFX2_2
*23 _0_[0]
*24 INVX1_1
*25 DFFSR_1
*26 _0_[1]
*27 NOR2X1_2
*28 DFFSR_2
*29 _2_
*30 NOR2X1_1
*31 NOR2X1_2
*32 _3_
*33 AND2X2_1
*34 NOR2X1_2
*35 rst
*36 INVX1_2

*PORTS
*12 I
*19 O
*21 O
*35 I

*D_NET *1 0.00062784
*CONN
*I *2:Q O *D DFFSR
*I *3:A I *L 0.0180033
*I *4:A I *L 0.0222369
*I *5:A I *L 0.0134094
*I *6:A I *L 0.0134147
*CAP
1 1_1 0.000258
2 1_2 0
3 1_3 8.784e-05
4 1_4 2.04e-05
5 1_5 0.0001224
6 1_6 2.04e-05
7 1_7 0.0001188
*RES
1 *2:Q 1_1 2.38
2 1_1 1_2 0
3 1_2 *3:A 0
4 1_2 1_3 1.77333
5 1_3 1_4 0.233333
6 1_4 *4:A 0
7 1_4 1_5 1.4
8 1_5 1_6 0.233333
9 1_6 *5:A 0
10 1_6 1_7 1.07333
11 1_7 *6:A 0
*END
*D_NET *7 0.00015168
*CONN
*I *8:Q O *D DFFSR
*I *9:B I *L 0.0177358
*I *10:B I *L 0.0227534
*I *11:A I *L 0.0134147
*CAP
1 7_1 3.36e-05
2 7_2 0
3 7_3 4.032e-05
4 7_4 0
5 7_5 7.776e-05
*RES
1 *8:Q 7_1 0.933333
2 7_1 7_2 0
3 7_2 *9:B 0
4 7_1 7_3 1.12
5 7_3 7_4 0
6 7_4 *10:B 0
7 7_3 7_5 0.933333
8 7_5 *11:A 0
*END
*D_NET *12 0.00040752
*CONN
*P *12 O
*I *13:CLK I *L 0.0134469
*I *14:CLK I *L 0.0134469
*CAP
1 12_1 0.00024456
2 12_2 2.04e-05
3 12_3 0.00014256
*RES
1 *12 12_1 3.12667
2 12_1 12_2 0.233333
3 12_2 *13:CLK 0
4 12_2 12_3 1.96
5 12_3 *14:CLK 0
*END
*D_NET *15 0.000462
*CONN
*I *16:Y O *D INVX1
*I *17:R I *L 0.0357813
*I *18:R I *L 0.0357813
*CAP
1 15_1 0.000258
2 15_2 0.000204
*RES
1 *16:Y 15_1 2.38
2 15_1 *17:R 0
3 15_1 15_2 2.33333
4 15_2 *18:R 0
*END
*D_NET *19 6.096e-05
*CONN
*I *20:Y O *D BUFX2
*P *19 I
*CAP
1 19_1 6.096e-05
*RES
1 *20:Y 19_1 1.02667
2 19_1 *19 0
*END
*D_NET *21 6.096e-05
*CONN
*I *22:Y O *D BUFX2
*P *21 I
*CAP
1 21_1 6.096e-05
*RES
1 *22:Y 21_1 1.02667
2 21_1 *21 0
*END
*D_NET *23 0.00014112
*CONN
*I *24:Y O *D INVX1
*I *25:D I *L 0.0135592
*CAP
1 23_1 0.00014112
*RES
1 *24:Y 23_1 3.92
2 23_1 *25:D 0
*END
*D_NET *26 0.00028392
*CONN
*I *27:Y O *D NOR2X1
*I *28:D I *L 0.0135592
*CAP
1 26_1 0.00028392
*RES
1 *27:Y 26_1 5.55333
2 26_1 *28:D 0
*END
*D_NET *29 0.00018
*CONN
*I *30:Y O *D NOR2X1
*I *31:A I *L 0.0222369
*CAP
1 29_1 0.00018
*RES
1 *30:Y 29_1 1.77333
2 29_1 *31:A 0
*END
*D_NET *32 0.00031944
*CONN
*I *33:Y O *D AND2X2
*I *34:B I *L 0.0227534
*CAP
1 32_1 0.00031944
*RES
1 *33:Y 32_1 2.94
2 32_1 *34:B 0
*END
*D_NET *35 0.00010176
*CONN
*P *35 O
*I *36:A I *L 0.0134094
*CAP
1 35_1 0.00010176
*RES
1 *35 35_1 1.49333
2 35_1 *36:A 0
*END
